5zjy_ligand
     RDKit          3D

116118  0  0  0  0  0  0  0  0999 V2000
    2.4770    9.1740   12.4410 C   0  0  0  0  0  0  0  0  0  0  0  0
    3.3010    9.2070   13.3330 O   0  0  0  0  0  0  0  0  0  0  0  0
    2.3380   10.3830   11.5550 C   0  0  0  0  0  0  0  0  0  0  0  0
    1.7200    8.0980   12.1670 N   0  0  0  0  0  0  0  0  0  0  0  0
    1.9470    6.7720   12.7560 C   0  0  0  0  0  0  0  0  0  0  0  0
    1.0930    5.7050   12.0810 C   0  0  0  0  0  0  0  0  0  0  0  0
    1.6460    4.8010   11.5100 O   0  0  0  0  0  0  0  0  0  0  0  0
    1.7200    6.7170   14.2590 C   0  0  0  0  0  0  0  0  0  0  0  0
    1.8920    5.3430   14.9140 C   0  0  0  0  0  0  0  0  0  0  0  0
    3.1610    4.6200   14.5090 C   0  0  0  0  0  0  0  0  0  0  0  0
    4.4390    5.3440   14.9230 C   0  0  0  0  0  0  0  0  0  0  0  0
    5.5470    4.9690   14.0120 N   0  0  0  0  0  0  0  0  0  0  0  0
   -0.2430    5.7890   12.1700 N   0  0  0  0  0  0  0  0  0  0  0  0
   -1.0900    5.0480   11.2330 C   0  0  0  0  0  0  0  0  0  0  0  0
   -2.1230    6.0280   10.6990 C   0  0  0  0  0  0  0  0  0  0  0  0
   -3.0520    6.3840   11.4070 O   0  0  0  0  0  0  0  0  0  0  0  0
   -1.7700    3.8520   11.8970 C   0  0  0  0  0  0  0  0  0  0  0  0
   -0.8410    2.6640   12.1130 C   0  0  0  0  0  0  0  0  0  0  0  0
   -1.5010    1.5510   12.9130 C   0  0  0  0  0  0  0  0  0  0  0  0
   -1.1550    1.6310   14.3940 C   0  0  0  0  0  0  0  0  0  0  0  0
   -2.0100    0.7670   15.2600 N   0  0  0  0  0  0  0  0  0  0  0  0
   -1.9070    6.5050    9.4850 N   0  0  0  0  0  0  0  0  0  0  0  0
   -2.8050    7.4630    8.8500 C   0  0  0  0  0  0  0  0  0  0  0  0
   -3.4290    6.8240    7.6250 C   0  0  0  0  0  0  0  0  0  0  0  0
   -2.8000    6.0000    6.9490 O   0  0  0  0  0  0  0  0  0  0  0  0
   -2.0450    8.7220    8.4460 C   0  0  0  0  0  0  0  0  0  0  0  0
   -1.5490    9.5380    9.6150 C   0  0  0  0  0  0  0  0  0  0  0  0
   -0.8210   10.7580    9.0930 C   0  0  0  0  0  0  0  0  0  0  0  0
   -0.3060   11.5990   10.1680 N   0  0  0  0  0  0  0  0  0  0  0  0
    0.4660   12.6720    9.9900 C   0  0  0  0  0  0  0  0  0  0  0  0
    0.8300   13.0600    8.7660 N   0  0  0  0  0  0  0  0  0  0  0  0
    0.8710   13.3680   11.0490 N   0  0  0  0  0  0  0  0  0  0  0  0
   -4.6730    7.1990    7.3410 N   0  0  0  0  0  0  0  0  0  0  0  0
   -5.3280    6.7830    6.1120 C   0  0  0  0  0  0  0  0  0  0  0  0
   -6.0200    7.9800    5.5290 C   0  0  0  0  0  0  0  0  0  0  0  0
   -6.6990    8.7450    6.2490 O   0  0  0  0  0  0  0  0  0  0  0  0
   -6.3800    5.7050    6.3650 C   0  0  0  0  0  0  0  0  0  0  0  0
   -5.8530    4.4130    6.9400 C   0  0  0  0  0  0  0  0  0  0  0  0
   -5.7600    4.2260    8.3190 C   0  0  0  0  0  0  0  0  0  0  0  0
   -5.5200    3.3410    6.1150 C   0  0  0  0  0  0  0  0  0  0  0  0
   -5.2860    3.0290    8.8510 C   0  0  0  0  0  0  0  0  0  0  0  0
   -5.0380    2.1420    6.6390 C   0  0  0  0  0  0  0  0  0  0  0  0
   -4.9220    1.9950    8.0110 C   0  0  0  0  0  0  0  0  0  0  0  0
   -4.4610    0.8190    8.5670 O   0  0  0  0  0  0  0  0  0  0  0  0
   -5.8790    8.1350    4.2200 N   0  0  0  0  0  0  0  0  0  0  0  0
   -6.6810    9.1020    3.5080 C   0  0  0  0  0  0  0  0  0  0  0  0
   -8.1260    8.6500    3.4140 C   0  0  0  0  0  0  0  0  0  0  0  0
   -8.4700    7.4780    3.5760 O   0  0  0  0  0  0  0  0  0  0  0  0
   -6.1390    9.3170    2.1110 C   0  0  0  0  0  0  0  0  0  0  0  0
   -6.2900    8.1420    1.3420 O   0  0  0  0  0  0  0  0  0  0  0  0
   -8.9710    9.6140    3.1230 N   0  0  0  0  0  0  0  0  0  0  0  0
  -10.3570    9.3560    2.8440 C   0  0  0  0  0  0  0  0  0  0  0  0
  -10.4840    8.3020    1.7150 C   0  0  0  0  0  0  0  0  0  0  0  0
  -11.2370    7.3270    1.8730 O   0  0  0  0  0  0  0  0  0  0  0  0
  -11.0060   10.6890    2.4970 C   0  0  0  0  0  0  0  0  0  0  0  0
  -12.4360   10.6360    2.1530 C   0  0  0  0  0  0  0  0  0  0  0  0
  -12.8490   12.0020    1.6390 C   0  0  0  0  0  0  0  0  0  0  0  0
  -14.2410   11.9140    1.3050 N   0  0  0  0  0  0  0  0  0  0  0  0
  -14.7170   11.5190    0.1320 C   0  0  0  0  0  0  0  0  0  0  0  0
  -16.0280   11.4500   -0.0270 N   0  0  0  0  0  0  0  0  0  0  0  0
  -13.9000   11.1910   -0.8720 N   0  0  0  0  0  0  0  0  0  0  0  0
  -10.1070    5.0890   -0.2210 O   0  0  0  0  0  0  0  0  0  0  0  0
   -9.3930    6.0850    0.0670 C   0  0  0  0  0  0  0  0  0  0  0  0
   -9.9010    7.4050   -0.3680 C   0  0  0  0  0  0  0  0  0  0  0  0
   -8.7610    7.8920   -1.3210 C   0  0  0  0  0  0  0  0  0  0  0  0
   -9.7210    8.4400    0.5830 N   0  0  0  0  0  0  0  0  0  0  0  0
  -11.0820    7.5430   -1.3110 C   0  0  0  0  0  0  0  0  0  0  0  0
  -11.0750    6.7540   -2.6180 C   0  0  0  0  0  0  0  0  0  0  0  0
  -12.5010    6.5470   -3.1420 C   0  0  0  0  0  0  0  0  0  0  0  0
  -12.4210    5.8550   -4.4750 C   0  0  0  0  0  0  0  0  0  0  0  0
   -8.3780    5.9680    0.8640 N   0  0  0  0  0  0  0  0  0  0  0  0
   -7.9770    4.6540    1.3460 C   0  0  0  0  0  0  0  0  0  0  0  0
   -9.0240    4.0500    2.2820 C   0  0  0  0  0  0  0  0  0  0  0  0
   -9.2550    2.8480    2.2340 O   0  0  0  0  0  0  0  0  0  0  0  0
   -6.6540    4.7680    2.1180 C   0  0  0  0  0  0  0  0  0  0  0  0
   -5.4490    5.0400    1.2480 C   0  0  0  0  0  0  0  0  0  0  0  0
   -4.1800    5.3530    2.0320 C   0  0  0  0  0  0  0  0  0  0  0  0
   -4.1900    6.0700    3.0300 O   0  0  0  0  0  0  0  0  0  0  0  0
   -3.0610    4.8350    1.5450 N   0  0  0  0  0  0  0  0  0  0  0  0
   -9.6300    4.8730    3.1410 N   0  0  0  0  0  0  0  0  0  0  0  0
  -10.6870    4.3240    4.0140 C   0  0  0  0  0  0  0  0  0  0  0  0
  -11.9070    3.8360    3.2340 C   0  0  0  0  0  0  0  0  0  0  0  0
  -12.4450    2.7530    3.5010 O   0  0  0  0  0  0  0  0  0  0  0  0
  -11.1010    5.3140    5.0860 C   0  0  0  0  0  0  0  0  0  0  0  0
   -9.9820    5.6340    6.0890 C   0  0  0  0  0  0  0  0  0  0  0  0
  -10.3160    6.8990    6.8660 C   0  0  0  0  0  0  0  0  0  0  0  0
   -9.6910    4.4790    7.0290 C   0  0  0  0  0  0  0  0  0  0  0  0
  -12.3460    4.6260    2.2610 N   0  0  0  0  0  0  0  0  0  0  0  0
  -13.5440    4.2760    1.5320 C   0  0  0  0  0  0  0  0  0  0  0  0
  -13.3460    3.0630    0.6280 C   0  0  0  0  0  0  0  0  0  0  0  0
  -14.3430    2.3930    0.3470 O   0  0  0  0  0  0  0  0  0  0  0  0
  -14.0700    5.4430    0.6970 C   0  0  0  0  0  0  0  0  0  0  0  0
  -14.6240    6.6410    1.4600 C   0  0  0  0  0  0  0  0  0  0  0  0
  -14.8780    7.8360    0.5500 C   0  0  0  0  0  0  0  0  0  0  0  0
  -15.8900    6.2810    2.2090 C   0  0  0  0  0  0  0  0  0  0  0  0
  -12.5720   -0.6640   -0.8270 O   0  0  0  0  0  0  0  0  0  0  0  0
  -12.3570    0.2980   -0.0690 C   0  0  0  0  0  0  0  0  0  0  0  0
  -12.1310    1.6340   -0.7180 C   0  0  0  0  0  0  0  0  0  0  0  0
  -10.5780    1.5690   -0.7670 C   0  0  0  0  0  0  0  0  0  0  0  0
  -12.1060    2.7960    0.1400 N   0  0  0  0  0  0  0  0  0  0  0  0
  -12.3670    1.6880   -2.2320 C   0  0  0  0  0  0  0  0  0  0  0  0
  -12.0300    3.0100   -2.9230 C   0  0  0  0  0  0  0  0  0  0  0  0
  -13.2030    3.5560   -3.7330 C   0  0  0  0  0  0  0  0  0  0  0  0
  -12.7090    4.5670   -4.7480 C   0  0  0  0  0  0  0  0  0  0  0  0
  -12.4600    0.2190    1.2040 N   0  0  0  0  0  0  0  0  0  0  0  0
  -12.7420   -1.0440    1.9100 C   0  0  0  0  0  0  0  0  0  0  0  0
  -14.2030   -1.4750    1.8680 C   0  0  0  0  0  0  0  0  0  0  0  0
  -15.0190   -1.0160    2.6620 O   0  0  0  0  0  0  0  0  0  0  0  0
  -12.2950   -0.8600    3.3570 C   0  0  0  0  0  0  0  0  0  0  0  0
  -10.8350   -1.0450    3.5380 C   0  0  0  0  0  0  0  0  0  0  0  0
  -10.3100   -2.2930    3.8520 C   0  0  0  0  0  0  0  0  0  0  0  0
   -9.9720    0.0220    3.3710 C   0  0  0  0  0  0  0  0  0  0  0  0
   -8.9450   -2.4560    4.0030 C   0  0  0  0  0  0  0  0  0  0  0  0
   -8.6090   -0.1260    3.5180 C   0  0  0  0  0  0  0  0  0  0  0  0
   -8.0910   -1.3700    3.8290 C   0  0  0  0  0  0  0  0  0  0  0  0
  -14.5550   -2.4470    0.8940 N   0  0  0  0  0  0  0  0  0  0  0  0
  1  2  2  0
  1  3  1  0
  4  1  1  0
  5  4  1  0
  6  5  1  0
  5  8  1  0
  6  7  2  0
 13  6  1  0
  8  9  1  0
  9 10  1  0
 10 11  1  0
 11 12  1  0
 14 13  1  0
 15 14  1  0
 14 17  1  0
 15 16  2  0
 22 15  1  0
 17 18  1  0
 18 19  1  0
 19 20  1  0
 20 21  1  0
 23 22  1  0
 24 23  1  0
 23 26  1  0
 24 25  2  0
 33 24  1  0
 26 27  1  0
 27 28  1  0
 28 29  1  0
 29 30  1  0
 30 31  1  0
 30 32  2  0
 34 33  1  0
 35 34  1  0
 34 37  1  0
 35 36  2  0
 45 35  1  0
 37 38  1  0
 38 39  2  0
 38 40  1  0
 39 41  1  0
 40 42  2  0
 41 43  2  0
 42 43  1  0
 43 44  1  0
 46 45  1  0
 47 46  1  0
 46 49  1  0
 47 48  2  0
 51 47  1  0
 49 50  1  0
 52 51  1  0
 53 52  1  0
 52 55  1  0
 53 54  2  0
 66 53  1  0
 55 56  1  0
 56 57  1  0
 57 58  1  0
 58 59  1  0
 59 60  2  0
 59 61  1  0
 63 62  2  0
 63 64  1  0
 71 63  1  0
 64 65  1  0
 64 66  1  0
 64 67  1  0
 67 68  1  0
 68 69  1  0
 69 70  1  0
 70104  2  0
 72 71  1  0
 73 72  1  0
 72 75  1  0
 73 74  2  0
 80 73  1  0
 75 76  1  0
 76 77  1  0
 77 78  2  0
 77 79  1  0
 81 80  1  0
 82 81  1  0
 81 84  1  0
 82 83  2  0
 88 82  1  0
 84 85  1  0
 85 86  1  0
 85 87  1  0
 89 88  1  0
 90 89  1  0
 89 92  1  0
 90 91  2  0
100 90  1  0
 92 93  1  0
 93 94  1  0
 93 95  1  0
 97 96  2  0
 98 97  1  0
 97105  1  0
 98 99  1  0
 98100  1  0
 98101  1  0
101102  1  0
102103  1  0
103104  1  0
105106  1  0
106107  1  0
106109  1  0
107108  2  0
107116  1  0
109110  1  0
110111  2  0
110112  1  0
111113  1  0
112114  2  0
113115  2  0
114115  1  0
M  CHG  2  12   1  21   1
M  END
$$$$
