obj01
  PyMOL2.4          3D                             0

 32 36  0  0  0  0  0  0  0  0999 V2000
   11.3250   16.3350   32.3700 Cl  0  0  0  0  0  0  0  0  0  0  0  0
    8.4890   16.0810   40.7090 C   0  0  0  0  0  0  0  0  0  0  0  0
    8.1610   15.1010   39.7700 C   0  0  0  0  0  0  0  0  0  0  0  0
    8.6440   15.4810   38.5720 N   0  0  0  0  0  0  0  0  0  0  0  0
    9.2600   16.6630   38.7640 C   0  0  0  0  0  0  0  0  0  0  0  0
    9.1760   17.0500   40.0640 O   0  0  0  0  0  0  0  0  0  0  0  0
    4.4530   11.3890   42.1530 C   0  0  0  0  0  0  0  0  0  0  0  0
    3.1470   11.0970   41.7610 C   0  0  0  0  0  0  0  0  0  0  0  0
    2.5040   11.8930   40.8780 N   0  0  0  0  0  0  0  0  0  0  0  0
    3.0730   12.9680   40.3660 C   0  0  0  0  0  0  0  0  0  0  0  0
    4.3700   13.3220   40.7160 C   0  0  0  0  0  0  0  0  0  0  0  0
    5.0790   12.5220   41.6200 C   0  0  0  0  0  0  0  0  0  0  0  0
    4.4540    9.4190   43.5810 C   0  0  0  0  0  0  0  0  0  0  0  0
    3.1470    9.1220   43.1930 C   0  0  0  0  0  0  0  0  0  0  0  0
    2.5020    9.9700   42.2750 C   0  0  0  0  0  0  0  0  0  0  0  0
    5.1060   10.5520   43.0710 C   0  0  0  0  0  0  0  0  0  0  0  0
    5.0490    8.5830   44.4740 O   0  0  0  0  0  0  0  0  0  0  0  0
    6.4220    8.9490   44.7980 C   0  0  0  0  0  0  0  0  0  0  0  0
    2.5440    8.0080   43.7350 O   0  0  0  0  0  0  0  0  0  0  0  0
    1.1990    7.6560   43.3110 C   0  0  0  0  0  0  0  0  0  0  0  0
    6.3710   12.8020   42.0150 O   0  0  0  0  0  0  0  0  0  0  0  0
    7.0560   13.8810   41.5460 C   0  0  0  0  0  0  0  0  0  0  0  0
    7.4450   13.9900   40.2070 C   0  0  0  0  0  0  0  0  0  0  0  0
    8.1050   15.9750   42.0430 C   0  0  0  0  0  0  0  0  0  0  0  0
    7.3880   14.8690   42.4650 C   0  0  0  0  0  0  0  0  0  0  0  0
    9.8900   17.4670   37.9010 N   0  0  0  0  0  0  0  0  0  0  0  0
   10.2130   17.1840   36.6450 C   0  0  0  0  0  0  0  0  0  0  0  0
    9.3340   16.5090   35.8040 C   0  0  0  0  0  0  0  0  0  0  0  0
    9.6740   16.2470   34.4840 C   0  0  0  0  0  0  0  0  0  0  0  0
   10.9020   16.6740   34.0090 C   0  0  0  0  0  0  0  0  0  0  0  0
   11.7870   17.3630   34.8390 C   0  0  0  0  0  0  0  0  0  0  0  0
   11.4430   17.6210   36.1620 C   0  0  0  0  0  0  0  0  0  0  0  0
  2  3  4  0  0  0  0
  2  6  4  0  0  0  0
  3  4  4  0  0  0  0
  4  5  4  0  0  0  0
  5 26  1  0  0  0  0
  5  6  4  0  0  0  0
  7  8  4  0  0  0  0
  7 12  4  0  0  0  0
  8  9  4  0  0  0  0
  9 10  4  0  0  0  0
 10 11  4  0  0  0  0
 11 12  4  0  0  0  0
 12 21  1  0  0  0  0
 13 16  4  0  0  0  0
 13 17  1  0  0  0  0
 13 14  4  0  0  0  0
 14 15  4  0  0  0  0
  8 15  4  0  0  0  0
  7 16  4  0  0  0  0
 17 18  1  0  0  0  0
 14 19  1  0  0  0  0
 19 20  1  0  0  0  0
 21 22  1  0  0  0  0
 22 23  4  0  0  0  0
 22 25  4  0  0  0  0
  3 23  4  0  0  0  0
  2 24  4  0  0  0  0
 24 25  4  0  0  0  0
 26 27  1  0  0  0  0
 27 28  4  0  0  0  0
 27 32  4  0  0  0  0
 28 29  4  0  0  0  0
 29 30  4  0  0  0  0
  1 30  1  0  0  0  0
 30 31  4  0  0  0  0
 31 32  4  0  0  0  0
M  END
$$$$
