5ze6_ligand
     RDKit          3D

 25 25  0  0  0  0  0  0  0  0999 V2000
   14.9610    4.1610   49.1090 C   0  0  0  0  0  0  0  0  0  0  0  0
   12.0670   19.6400   41.2690 O   0  0  0  0  0  0  0  0  0  0  0  0
   10.4280   20.3740   42.4060 O   0  0  0  0  0  0  0  0  0  0  0  0
    8.0010   19.3610   41.6850 O   0  0  0  0  0  0  0  0  0  0  0  0
    8.5580   15.8990   40.6730 C   0  0  0  0  0  0  0  0  0  0  0  0
    7.9380   17.0910   41.0010 C   0  0  0  0  0  0  0  0  0  0  0  0
    9.9340   15.8210   40.6710 C   0  0  0  0  0  0  0  0  0  0  0  0
   15.1530    4.9390   47.8040 C   0  0  0  0  0  0  0  0  0  0  0  0
   14.4330    6.2900   47.8180 C   0  0  0  0  0  0  0  0  0  0  0  0
   14.8080    7.0790   46.5770 C   0  0  0  0  0  0  0  0  0  0  0  0
   13.8480    8.2020   46.2370 C   0  0  0  0  0  0  0  0  0  0  0  0
   13.8500    8.3760   44.7250 C   0  0  0  0  0  0  0  0  0  0  0  0
   13.7450    9.8320   44.3000 C   0  0  0  0  0  0  0  0  0  0  0  0
   15.0640   10.5620   44.0440 C   0  0  0  0  0  0  0  0  0  0  0  0
   15.3190   11.6890   45.0440 C   0  0  0  0  0  0  0  0  0  0  0  0
   15.3700   13.0810   44.4400 C   0  0  0  0  0  0  0  0  0  0  0  0
   14.0420   13.8380   44.4810 C   0  0  0  0  0  0  0  0  0  0  0  0
   14.0540   15.0010   43.4780 C   0  0  0  0  0  0  0  0  0  0  0  0
   12.7120   15.4360   42.8760 C   0  0  0  0  0  0  0  0  0  0  0  0
   12.7560   15.5960   41.3510 C   0  0  0  0  0  0  0  0  0  0  0  0
   12.1170   16.7980   40.9750 O   0  0  0  0  0  0  0  0  0  0  0  0
   10.9030   19.4390   41.7020 C   0  0  0  0  0  0  0  0  0  0  0  0
    8.6980   18.1990   41.3430 C   0  0  0  0  0  0  0  0  0  0  0  0
   10.7130   16.9270   41.0130 C   0  0  0  0  0  0  0  0  0  0  0  0
   10.0980   18.1550   41.3470 C   0  0  0  0  0  0  0  0  0  0  0  0
  8  1  1  0
 22  2  2  0
 22  3  1  0
 23  4  1  0
  6  5  2  0
  5  7  1  0
 23  6  1  0
  7 24  2  0
  9  8  1  0
 10  9  1  0
 11 10  1  0
 12 11  1  0
 13 12  1  0
 14 13  1  0
 15 14  1  0
 16 15  1  0
 17 16  1  0
 18 17  1  0
 19 18  1  0
 20 19  1  0
 21 20  1  0
 24 21  1  0
 25 22  1  0
 23 25  2  0
 24 25  1  0
M  END
$$$$
